-386.866743115     ddt     bullvalene     cope     trial21     runpoint      762     runisomer      1
 OpenBabel09272111043D

 20 22  0  0  1  0  0  0  0  0999 V2000
    1.1464   -0.5316    1.1246 C   0  0  0  0  0  3  0  0  0  0  0  0
    1.1959   -0.5109   -1.2934 C   0  0  0  0  0  3  0  0  0  0  0  0
   -0.0617   -0.9156   -1.6543 C   0  0  0  0  0  3  0  0  0  0  0  0
   -0.0586   -0.9484    1.5363 C   0  0  0  0  0  3  0  0  0  0  0  0
   -1.2413   -0.5811   -0.6742 C   0  0  1  0  0  0  0  0  0  0  0  0
   -1.2256   -0.7927    0.7804 C   0  0  2  0  0  0  0  0  0  0  0  0
   -1.4998    0.6348    0.0766 C   0  0  1  0  0  0  0  0  0  0  0  0
   -0.3065   -1.5862   -2.4894 H   0  0  0  0  0  0  0  0  0  0  0  0
    0.0204   -1.5035    2.3488 H   0  0  0  0  0  0  0  0  0  0  0  0
   -2.0290   -0.7736   -1.4749 H   0  0  0  0  0  0  0  0  0  0  0  0
   -2.2145   -1.2452    1.1635 H   0  0  0  0  0  0  0  0  0  0  0  0
   -0.4834    1.7347    0.0732 C   0  0  0  0  0  0  0  0  0  0  0  0
   -0.9610    2.7860    0.1061 H   0  0  0  0  0  0  0  0  0  0  0  0
    1.4878    0.3186   -0.0097 C   0  0  1  0  0  0  0  0  0  0  0  0
    1.8021   -0.7093   -2.1931 H   0  0  0  0  0  0  0  0  0  0  0  0
    1.9714   -0.6145    1.8293 H   0  0  0  0  0  0  0  0  0  0  0  0
    2.6661    0.4660   -0.2437 H   0  0  0  0  0  0  0  0  0  0  0  0
   -2.5498    0.9475    0.0006 H   0  0  0  0  0  0  0  0  0  0  0  0
    0.7471    1.6425    0.1299 C   0  0  0  0  0  0  0  0  0  0  0  0
    1.4065    2.4418    0.1920 H   0  0  0  0  0  0  0  0  0  0  0  0
  1  4  1  0  0  0  0
  1 16  1  0  0  0  0
  2 14  1  0  0  0  0
  3  2  1  0  0  0  0
  3  5  1  0  0  0  0
  4  9  1  0  0  0  0
  5 10  1  6  0  0  0
  5  7  1  0  0  0  0
  5  6  1  0  0  0  0
  6 11  1  1  0  0  0
  6  4  1  0  0  0  0
  7 18  1  1  0  0  0
  7  6  1  0  0  0  0
  8  3  1  0  0  0  0
 12  7  1  0  0  0  0
 12 13  1  0  0  0  0
 12 19  2  0  0  0  0
 14 17  1  1  0  0  0
 14 19  1  0  0  0  0
 14  1  1  0  0  0  0
 15  2  1  0  0  0  0
 19 20  1  0  0  0  0
M  END
$$$$
