-155.932182808     ddt     bullvalene     cope     trial21     runpoint      32     runisomer      1
 OpenBabel09242109543D

 10  9  0  0  0  0  0  0  0  0999 V2000
    1.5457   -0.4756   -0.1249 C   0  0  0  0  0  0  0  0  0  0  0  0
   -1.5119   -0.4495    0.1648 C   0  0  0  0  0  0  0  0  0  0  0  0
   -0.7668    0.5958   -0.1177 C   0  0  0  0  0  0  0  0  0  0  0  0
    0.7324    0.5283    0.0870 C   0  0  0  0  0  0  0  0  0  0  0  0
    2.6673   -0.4808    0.0234 H   0  0  0  0  0  0  0  0  0  0  0  0
    1.0690   -1.4459   -0.3695 H   0  0  0  0  0  0  0  0  0  0  0  0
   -0.8343   -1.3808    0.4344 H   0  0  0  0  0  0  0  0  0  0  0  0
   -2.6942   -0.6083   -0.0204 H   0  0  0  0  0  0  0  0  0  0  0  0
   -1.3420    1.4179   -0.6544 H   0  0  0  0  0  0  0  0  0  0  0  0
    1.1414    1.3992    0.4765 H   0  0  0  0  0  0  0  0  0  0  0  0
  1  5  1  0  0  0  0
  1  4  2  0  0  0  0
  2  7  1  0  0  0  0
  3  4  1  0  0  0  0
  3  2  2  0  0  0  0
  4 10  1  0  0  0  0
  6  1  1  0  0  0  0
  8  2  1  0  0  0  0
  9  3  1  0  0  0  0
M  END
$$$$
-155.950065955     ddt     bullvalene     cope     trial21     runpoint      33     runisomer      1
 OpenBabel09242109543D

 10  9  0  0  0  0  0  0  0  0999 V2000
    1.5766   -0.4740   -0.1280 C   0  0  0  0  0  0  0  0  0  0  0  0
   -1.5381   -0.4534    0.1631 C   0  0  0  0  0  0  0  0  0  0  0  0
   -0.7756    0.5941   -0.1220 C   0  0  0  0  0  0  0  0  0  0  0  0
    0.7329    0.5136    0.0866 C   0  0  0  0  0  0  0  0  0  0  0  0
    2.7184   -0.3821    0.0191 H   0  0  0  0  0  0  0  0  0  0  0  0
    1.0740   -1.4279   -0.3583 H   0  0  0  0  0  0  0  0  0  0  0  0
   -0.9420   -1.3227    0.4382 H   0  0  0  0  0  0  0  0  0  0  0  0
   -2.6725   -0.5683    0.0474 H   0  0  0  0  0  0  0  0  0  0  0  0
   -1.2504    1.4153   -0.6288 H   0  0  0  0  0  0  0  0  0  0  0  0
    1.1220    1.4092    0.4857 H   0  0  0  0  0  0  0  0  0  0  0  0
  1  5  1  0  0  0  0
  1  4  2  0  0  0  0
  2  7  1  0  0  0  0
  3  4  1  0  0  0  0
  3  2  2  0  0  0  0
  4 10  1  0  0  0  0
  6  1  1  0  0  0  0
  8  2  1  0  0  0  0
  9  3  1  0  0  0  0
M  END
$$$$
-155.963025389     ddt     bullvalene     cope     trial21     runpoint      34     runisomer      1
 OpenBabel09242109543D

 10  9  0  0  0  0  0  0  0  0999 V2000
    1.6083   -0.4734   -0.1310 C   0  0  0  0  0  0  0  0  0  0  0  0
   -1.5652   -0.4582    0.1613 C   0  0  0  0  0  0  0  0  0  0  0  0
   -0.7836    0.5916   -0.1265 C   0  0  0  0  0  0  0  0  0  0  0  0
    0.7319    0.5001    0.0860 C   0  0  0  0  0  0  0  0  0  0  0  0
    2.7492   -0.2868    0.0138 H   0  0  0  0  0  0  0  0  0  0  0  0
    1.0890   -1.4096   -0.3511 H   0  0  0  0  0  0  0  0  0  0  0  0
   -1.0569   -1.2681    0.4473 H   0  0  0  0  0  0  0  0  0  0  0  0
   -2.6331   -0.5248    0.1157 H   0  0  0  0  0  0  0  0  0  0  0  0
   -1.1556    1.4221   -0.6013 H   0  0  0  0  0  0  0  0  0  0  0  0
    1.1086    1.4328    0.4964 H   0  0  0  0  0  0  0  0  0  0  0  0
  1  5  1  0  0  0  0
  1  4  2  0  0  0  0
  2  7  1  0  0  0  0
  3  4  1  0  0  0  0
  3  2  2  0  0  0  0
  4 10  1  0  0  0  0
  6  1  1  0  0  0  0
  8  2  1  0  0  0  0
  9  3  1  0  0  0  0
M  END
